* Copyright (c) 2000-2012 Linear Technology Corporation.   All rights reserved.
*
* Source: http://ltwiki.org/index.php?title=Standard.dio
*

.model BZX384B3V9 D(Is=1.033E-15 N=1.001 BV=3.9 IBV=0.005 Rs=0.387 Cjo=2.82E-10 Vj=0.6743 M=0.3219 Fc=0.5 Iave=250M Vpk=3.9 Mfg="NXP" Type="ZENER")
